** sch_path: /foss/designs/sar_8bit.sch
**.subckt sar_8bit clk rst_n avss comp_out dvdd dvss vinp vinm vcm vrefp ibsnk_1u dout7,dout6,dout5,dout4,dout3,dout2,dout1,dout0
*+ data_rdy avdd vrefm
*.opin data_rdy
*.iopin avss
*.iopin avdd
*.ipin clk
*.ipin rst_n
*.opin dout7,dout6,dout5,dout4,dout3,dout2,dout1,dout0
*.iopin dvss
*.iopin dvdd
*.ipin vinp
*.ipin vinm
*.ipin vcm
*.ipin vrefp
*.ipin ibsnk_1u
*.opin comp_out
*.ipin vrefm
x1 avdd comp_out ibsnk_1u comp_p comp_m avss latch adc_comp
XM2 dvss cap_1 dvss dvss sky130_fd_pr__nfet_01v8 L=5 W=5 nf=1 ad='int((nf+1)/2) * W/nf * 0.29' as='int((nf+2)/2) * W/nf * 0.29' pd='2*int((nf+1)/2) * (W/nf + 0.29)'
+ ps='2*int((nf+2)/2) * (W/nf + 0.29)' nrd='0.29 / W' nrs='0.29 / W' sa=0 sb=0 sd=0 mult=2 m=2
XM3 dvss cap_2 dvss dvss sky130_fd_pr__nfet_01v8 L=5 W=5 nf=1 ad='int((nf+1)/2) * W/nf * 0.29' as='int((nf+2)/2) * W/nf * 0.29' pd='2*int((nf+1)/2) * (W/nf + 0.29)'
+ ps='2*int((nf+2)/2) * (W/nf + 0.29)' nrd='0.29 / W' nrs='0.29 / W' sa=0 sb=0 sd=0 mult=2 m=2
x3 phi1x7 phi1x6 phi1x5 phi1x4 phi1x3 phi1x2 phi1x1 phi1x0 sphi1 avss vinp phi1x_n7 phi1x_n6 phi1x_n5 phi1x_n4 phi1x_n3 phi1x_n2
+ phi1x_n1 phi1x_n0 sphi1_n avss sample vrefp phi2x7 phi2x6 phi2x5 phi2x4 phi2x3 phi2x2 phi2x1 phi2x0 sphi2 avdd sample_n vcm sphi2_n
+ phi2x_n7 phi2x_n6 phi2x_n5 phi2x_n4 phi2x_n3 phi2x_n2 phi2x_n1 phi2x_n0 comp_p capdac_p
x4 vinm sphi1 phi27 phi26 phi25 phi24 phi23 phi22 phi21 phi20 avss sample phi2_n7 phi2_n6 phi2_n5 phi2_n4 phi2_n3 phi2_n2 phi2_n1
+ phi2_n0 sphi1_n sample_n avss vrefm phi17 phi16 phi15 phi14 phi13 phi12 phi11 phi10 sphi2 avdd vcm sphi2_n phi1_n7 phi1_n6 phi1_n5
+ phi1_n4 phi1_n3 phi1_n2 phi1_n1 phi1_n0 comp_m capdac_m
x2 dvdd clk rst_n dvss comp_out cap_1 cap_2 data_rdy sample sample_n phi17 phi16 phi15 phi14 phi13 phi12 phi11 phi10 phi27 phi26
+ phi25 phi24 phi23 phi22 phi21 phi20 phi1_n7 phi1_n6 phi1_n5 phi1_n4 phi1_n3 phi1_n2 phi1_n1 phi1_n0 phi2_n7 phi2_n6 phi2_n5 phi2_n4
+ phi2_n3 phi2_n2 phi2_n1 phi2_n0 phi1x_n7 phi1x_n6 phi1x_n5 phi1x_n4 phi1x_n3 phi1x_n2 phi1x_n1 phi1x_n0 phi2x_n7 phi2x_n6 phi2x_n5
+ phi2x_n4 phi2x_n3 phi2x_n2 phi2x_n1 phi2x_n0 phi1x7 phi1x6 phi1x5 phi1x4 phi1x3 phi1x2 phi1x1 phi1x0 phi2x7 phi2x6 phi2x5 phi2x4 phi2x3
+ phi2x2 phi2x1 phi2x0 dout7 dout6 dout5 dout4 dout3 dout2 dout1 dout0 sphi1 sphi1_n sphi2_n sphi2 latch sar_digital
**.ends

* expanding   symbol:  adc_comp.sym # of pins=7
** sym_path: /foss/designs/adc_comp.sym
** sch_path: /foss/designs/adc_comp.sch
.subckt adc_comp vdd vo ibn_1u vp vm vss latch
*.iopin vss
*.iopin vdd
*.ipin vp
*.ipin vm
*.ipin latch
*.ipin ibn_1u
*.opin vo
XM3 vom1 vp vx vss sky130_fd_pr__nfet_01v8_lvt L=1 W=2 nf=1 ad='int((nf+1)/2) * W/nf * 0.29' as='int((nf+2)/2) * W/nf * 0.29' pd='2*int((nf+1)/2) * (W/nf + 0.29)'
+ ps='2*int((nf+2)/2) * (W/nf + 0.29)' nrd='0.29 / W' nrs='0.29 / W' sa=0 sb=0 sd=0 mult=8 m=8
XM4 vop1 vm vx vss sky130_fd_pr__nfet_01v8_lvt L=1 W=2 nf=1 ad='int((nf+1)/2) * W/nf * 0.29' as='int((nf+2)/2) * W/nf * 0.29' pd='2*int((nf+1)/2) * (W/nf + 0.29)'
+ ps='2*int((nf+2)/2) * (W/nf + 0.29)' nrd='0.29 / W' nrs='0.29 / W' sa=0 sb=0 sd=0 mult=8 m=8
XM2 vop1 vbp vdd vdd sky130_fd_pr__pfet_01v8_lvt L=5 W=5 nf=1 ad='int((nf+1)/2) * W/nf * 0.29' as='int((nf+2)/2) * W/nf * 0.29' pd='2*int((nf+1)/2) * (W/nf + 0.29)'
+ ps='2*int((nf+2)/2) * (W/nf + 0.29)' nrd='0.29 / W' nrs='0.29 / W' sa=0 sb=0 sd=0 mult=5 m=5
XM1 vom1 vbp vdd vdd sky130_fd_pr__pfet_01v8_lvt L=5 W=5 nf=1 ad='int((nf+1)/2) * W/nf * 0.29' as='int((nf+2)/2) * W/nf * 0.29' pd='2*int((nf+1)/2) * (W/nf + 0.29)'
+ ps='2*int((nf+2)/2) * (W/nf + 0.29)' nrd='0.29 / W' nrs='0.29 / W' sa=0 sb=0 sd=0 mult=5 m=5
XM6 ibn_1u ibn_1u vss vss sky130_fd_pr__nfet_01v8 L=20 W=3 nf=1 ad='int((nf+1)/2) * W/nf * 0.29' as='int((nf+2)/2) * W/nf * 0.29' pd='2*int((nf+1)/2) * (W/nf + 0.29)'
+ ps='2*int((nf+2)/2) * (W/nf + 0.29)' nrd='0.29 / W' nrs='0.29 / W' sa=0 sb=0 sd=0 mult=2 m=2
XM5 vx ibn_1u vss vss sky130_fd_pr__nfet_01v8 L=20 W=3 nf=1 ad='int((nf+1)/2) * W/nf * 0.29' as='int((nf+2)/2) * W/nf * 0.29' pd='2*int((nf+1)/2) * (W/nf + 0.29)'
+ ps='2*int((nf+2)/2) * (W/nf + 0.29)' nrd='0.29 / W' nrs='0.29 / W' sa=0 sb=0 sd=0 mult=12 m=12
XM7 vbp ibn_1u vss vss sky130_fd_pr__nfet_01v8 L=20 W=3 nf=1 ad='int((nf+1)/2) * W/nf * 0.29' as='int((nf+2)/2) * W/nf * 0.29' pd='2*int((nf+1)/2) * (W/nf + 0.29)'
+ ps='2*int((nf+2)/2) * (W/nf + 0.29)' nrd='0.29 / W' nrs='0.29 / W' sa=0 sb=0 sd=0 mult=1 m=1
XM8 vbp vbp vdd vdd sky130_fd_pr__pfet_01v8_lvt L=5 W=5 nf=1 ad='int((nf+1)/2) * W/nf * 0.29' as='int((nf+2)/2) * W/nf * 0.29' pd='2*int((nf+1)/2) * (W/nf + 0.29)'
+ ps='2*int((nf+2)/2) * (W/nf + 0.29)' nrd='0.29 / W' nrs='0.29 / W' sa=0 sb=0 sd=0 mult=1 m=1
XM9 vx vop1 vdd vdd sky130_fd_pr__pfet_01v8_lvt L=1 W=5 nf=1 ad='int((nf+1)/2) * W/nf * 0.29' as='int((nf+2)/2) * W/nf * 0.29' pd='2*int((nf+1)/2) * (W/nf + 0.29)'
+ ps='2*int((nf+2)/2) * (W/nf + 0.29)' nrd='0.29 / W' nrs='0.29 / W' sa=0 sb=0 sd=0 mult=2 m=2
XM10 vx vom1 vdd vdd sky130_fd_pr__pfet_01v8_lvt L=1 W=5 nf=1 ad='int((nf+1)/2) * W/nf * 0.29' as='int((nf+2)/2) * W/nf * 0.29' pd='2*int((nf+1)/2) * (W/nf + 0.29)'
+ ps='2*int((nf+2)/2) * (W/nf + 0.29)' nrd='0.29 / W' nrs='0.29 / W' sa=0 sb=0 sd=0 mult=2 m=2
XM11 vop2 vom2 vss vss sky130_fd_pr__nfet_01v8 L=2 W=3 nf=1 ad='int((nf+1)/2) * W/nf * 0.29' as='int((nf+2)/2) * W/nf * 0.29' pd='2*int((nf+1)/2) * (W/nf + 0.29)'
+ ps='2*int((nf+2)/2) * (W/nf + 0.29)' nrd='0.29 / W' nrs='0.29 / W' sa=0 sb=0 sd=0 mult=1 m=1
XM12 vom2 vop2 vss vss sky130_fd_pr__nfet_01v8 L=2 W=3 nf=1 ad='int((nf+1)/2) * W/nf * 0.29' as='int((nf+2)/2) * W/nf * 0.29' pd='2*int((nf+1)/2) * (W/nf + 0.29)'
+ ps='2*int((nf+2)/2) * (W/nf + 0.29)' nrd='0.29 / W' nrs='0.29 / W' sa=0 sb=0 sd=0 mult=1 m=1
XM13 net5 vom1 vdd vdd sky130_fd_pr__pfet_01v8_lvt L=0.4 W=5 nf=1 ad='int((nf+1)/2) * W/nf * 0.29' as='int((nf+2)/2) * W/nf * 0.29'
+ pd='2*int((nf+1)/2) * (W/nf + 0.29)' ps='2*int((nf+2)/2) * (W/nf + 0.29)' nrd='0.29 / W' nrs='0.29 / W' sa=0 sb=0 sd=0 mult=1 m=1
XM14 net4 vop1 vdd vdd sky130_fd_pr__pfet_01v8_lvt L=0.4 W=5 nf=1 ad='int((nf+1)/2) * W/nf * 0.29' as='int((nf+2)/2) * W/nf * 0.29'
+ pd='2*int((nf+1)/2) * (W/nf + 0.29)' ps='2*int((nf+2)/2) * (W/nf + 0.29)' nrd='0.29 / W' nrs='0.29 / W' sa=0 sb=0 sd=0 mult=1 m=1
XM17 vom2 latch_n vss vss sky130_fd_pr__nfet_01v8 L=0.15 W=0.5 nf=1 ad='int((nf+1)/2) * W/nf * 0.29' as='int((nf+2)/2) * W/nf * 0.29'
+ pd='2*int((nf+1)/2) * (W/nf + 0.29)' ps='2*int((nf+2)/2) * (W/nf + 0.29)' nrd='0.29 / W' nrs='0.29 / W' sa=0 sb=0 sd=0 mult=1 m=1
XM18 vop2 latch_n vss vss sky130_fd_pr__nfet_01v8 L=0.15 W=0.5 nf=1 ad='int((nf+1)/2) * W/nf * 0.29' as='int((nf+2)/2) * W/nf * 0.29'
+ pd='2*int((nf+1)/2) * (W/nf + 0.29)' ps='2*int((nf+2)/2) * (W/nf + 0.29)' nrd='0.29 / W' nrs='0.29 / W' sa=0 sb=0 sd=0 mult=1 m=1
XM19 net1 vop2 vdd vdd sky130_fd_pr__pfet_01v8 L=0.15 W=1 nf=1 ad='int((nf+1)/2) * W/nf * 0.29' as='int((nf+2)/2) * W/nf * 0.29' pd='2*int((nf+1)/2) * (W/nf + 0.29)'
+ ps='2*int((nf+2)/2) * (W/nf + 0.29)' nrd='0.29 / W' nrs='0.29 / W' sa=0 sb=0 sd=0 mult=1 m=1
XM20 net1 vop2 vss vss sky130_fd_pr__nfet_01v8 L=0.15 W=0.5 nf=1 ad='int((nf+1)/2) * W/nf * 0.29' as='int((nf+2)/2) * W/nf * 0.29'
+ pd='2*int((nf+1)/2) * (W/nf + 0.29)' ps='2*int((nf+2)/2) * (W/nf + 0.29)' nrd='0.29 / W' nrs='0.29 / W' sa=0 sb=0 sd=0 mult=1 m=1
XM21 net2 net1 vdd vdd sky130_fd_pr__pfet_01v8 L=0.15 W=1 nf=1 ad='int((nf+1)/2) * W/nf * 0.29' as='int((nf+2)/2) * W/nf * 0.29' pd='2*int((nf+1)/2) * (W/nf + 0.29)'
+ ps='2*int((nf+2)/2) * (W/nf + 0.29)' nrd='0.29 / W' nrs='0.29 / W' sa=0 sb=0 sd=0 mult=2 m=2
XM22 net2 net1 vss vss sky130_fd_pr__nfet_01v8 L=0.15 W=0.5 nf=1 ad='int((nf+1)/2) * W/nf * 0.29' as='int((nf+2)/2) * W/nf * 0.29'
+ pd='2*int((nf+1)/2) * (W/nf + 0.29)' ps='2*int((nf+2)/2) * (W/nf + 0.29)' nrd='0.29 / W' nrs='0.29 / W' sa=0 sb=0 sd=0 mult=2 m=2
XM23 net3 vom2 vdd vdd sky130_fd_pr__pfet_01v8 L=0.15 W=1 nf=1 ad='int((nf+1)/2) * W/nf * 0.29' as='int((nf+2)/2) * W/nf * 0.29' pd='2*int((nf+1)/2) * (W/nf + 0.29)'
+ ps='2*int((nf+2)/2) * (W/nf + 0.29)' nrd='0.29 / W' nrs='0.29 / W' sa=0 sb=0 sd=0 mult=1 m=1
XM24 net3 vom2 vss vss sky130_fd_pr__nfet_01v8 L=0.15 W=0.5 nf=1 ad='int((nf+1)/2) * W/nf * 0.29' as='int((nf+2)/2) * W/nf * 0.29'
+ pd='2*int((nf+1)/2) * (W/nf + 0.29)' ps='2*int((nf+2)/2) * (W/nf + 0.29)' nrd='0.29 / W' nrs='0.29 / W' sa=0 sb=0 sd=0 mult=1 m=1
XM15 net6 vop2 net4 vdd sky130_fd_pr__pfet_01v8_lvt L=0.4 W=5 nf=1 ad='int((nf+1)/2) * W/nf * 0.29' as='int((nf+2)/2) * W/nf * 0.29'
+ pd='2*int((nf+1)/2) * (W/nf + 0.29)' ps='2*int((nf+2)/2) * (W/nf + 0.29)' nrd='0.29 / W' nrs='0.29 / W' sa=0 sb=0 sd=0 mult=1 m=1
XM16 net7 vom2 net5 vdd sky130_fd_pr__pfet_01v8_lvt L=0.4 W=5 nf=1 ad='int((nf+1)/2) * W/nf * 0.29' as='int((nf+2)/2) * W/nf * 0.29'
+ pd='2*int((nf+1)/2) * (W/nf + 0.29)' ps='2*int((nf+2)/2) * (W/nf + 0.29)' nrd='0.29 / W' nrs='0.29 / W' sa=0 sb=0 sd=0 mult=1 m=1
XM25 net6 latch vom2 vss sky130_fd_pr__nfet_01v8_lvt L=0.15 W=1 nf=1 ad='int((nf+1)/2) * W/nf * 0.29' as='int((nf+2)/2) * W/nf * 0.29'
+ pd='2*int((nf+1)/2) * (W/nf + 0.29)' ps='2*int((nf+2)/2) * (W/nf + 0.29)' nrd='0.29 / W' nrs='0.29 / W' sa=0 sb=0 sd=0 mult=1 m=1
XM26 net7 latch vop2 vss sky130_fd_pr__nfet_01v8_lvt L=0.15 W=1 nf=1 ad='int((nf+1)/2) * W/nf * 0.29' as='int((nf+2)/2) * W/nf * 0.29'
+ pd='2*int((nf+1)/2) * (W/nf + 0.29)' ps='2*int((nf+2)/2) * (W/nf + 0.29)' nrd='0.29 / W' nrs='0.29 / W' sa=0 sb=0 sd=0 mult=1 m=1
x30 latch vss vss vdd vdd latch_n sky130_fd_sc_hd__inv_1
XM27 vss ibn_1u vss vss sky130_fd_pr__nfet_01v8 L=20 W=3 nf=1 ad='int((nf+1)/2) * W/nf * 0.29' as='int((nf+2)/2) * W/nf * 0.29' pd='2*int((nf+1)/2) * (W/nf + 0.29)'
+ ps='2*int((nf+2)/2) * (W/nf + 0.29)' nrd='0.29 / W' nrs='0.29 / W' sa=0 sb=0 sd=0 mult=2 m=2
XM28 vss vss vss vss sky130_fd_pr__nfet_01v8_lvt L=1 W=2 nf=1 ad='int((nf+1)/2) * W/nf * 0.29' as='int((nf+2)/2) * W/nf * 0.29' pd='2*int((nf+1)/2) * (W/nf + 0.29)'
+ ps='2*int((nf+2)/2) * (W/nf + 0.29)' nrd='0.29 / W' nrs='0.29 / W' sa=0 sb=0 sd=0 mult=4 m=4
XM29 vss vss vss vss sky130_fd_pr__nfet_01v8_lvt L=1 W=1 nf=1 ad='int((nf+1)/2) * W/nf * 0.29' as='int((nf+2)/2) * W/nf * 0.29' pd='2*int((nf+1)/2) * (W/nf + 0.29)'
+ ps='2*int((nf+2)/2) * (W/nf + 0.29)' nrd='0.29 / W' nrs='0.29 / W' sa=0 sb=0 sd=0 mult=20 m=20
XM30 vdd vbp vdd vdd sky130_fd_pr__pfet_01v8_lvt L=5 W=5 nf=1 ad='int((nf+1)/2) * W/nf * 0.29' as='int((nf+2)/2) * W/nf * 0.29' pd='2*int((nf+1)/2) * (W/nf + 0.29)'
+ ps='2*int((nf+2)/2) * (W/nf + 0.29)' nrd='0.29 / W' nrs='0.29 / W' sa=0 sb=0 sd=0 mult=10 m=10
XM31 vdd vdd vdd vdd sky130_fd_pr__pfet_01v8_lvt L=1 W=5 nf=1 ad='int((nf+1)/2) * W/nf * 0.29' as='int((nf+2)/2) * W/nf * 0.29' pd='2*int((nf+1)/2) * (W/nf + 0.29)'
+ ps='2*int((nf+2)/2) * (W/nf + 0.29)' nrd='0.29 / W' nrs='0.29 / W' sa=0 sb=0 sd=0 mult=2 m=2
x7 net2 vss vss vdd vdd vo sky130_fd_sc_hd__inv_4
.ends


* expanding   symbol:  capdac_p.sym # of pins=17
** sym_path: /foss/designs/capdac_p.sym
** sch_path: /foss/designs/capdac_p.sch
.subckt capdac_p phi17 phi16 phi15 phi14 phi13 phi12 phi11 phi10 sphi1 sub vin phi1_n7 phi1_n6 phi1_n5 phi1_n4 phi1_n3 phi1_n2
+ phi1_n1 phi1_n0 sphi1_n GND sample vref phi27 phi26 phi25 phi24 phi23 phi22 phi21 phi20 sphi2 vdd sample_n vcm sphi2_n phi2_n7 phi2_n6
+ phi2_n5 phi2_n4 phi2_n3 phi2_n2 phi2_n1 phi2_n0 com_x
*.ipin phi17,phi16,phi15,phi14,phi13,phi12,phi11,phi10
*.ipin phi1_n7,phi1_n6,phi1_n5,phi1_n4,phi1_n3,phi1_n2,phi1_n1,phi1_n0
*.iopin vdd
*.iopin GND
*.iopin sub
*.ipin phi27,phi26,phi25,phi24,phi23,phi22,phi21,phi20
*.ipin phi2_n7,phi2_n6,phi2_n5,phi2_n4,phi2_n3,phi2_n2,phi2_n1,phi2_n0
*.opin com_x
*.ipin sphi1
*.ipin sphi1_n
*.ipin sphi2
*.ipin sphi2_n
*.ipin vcm
*.ipin vref
*.ipin vin
*.ipin sample_n
*.ipin sample
x2 net1 sub GND vdd sphi1 sphi2 sphi2_n sphi1_n com_x cap_switch_block
x1 net1 sub GND vdd phi10 phi20 phi2_n0 phi1_n0 com_x cap_switch_block
x12 net1 sub GND vdd phi11 phi21 phi2_n1 phi1_n1 com_x cap_switch_block
x11 net1 sub GND vdd phi11 phi21 phi2_n1 phi1_n1 com_x cap_switch_block
x54 net1 sub GND vdd phi12 phi22 phi2_n2 phi1_n2 com_x cap_switch_block
x53 net1 sub GND vdd phi12 phi22 phi2_n2 phi1_n2 com_x cap_switch_block
x52 net1 sub GND vdd phi12 phi22 phi2_n2 phi1_n2 com_x cap_switch_block
x51 net1 sub GND vdd phi12 phi22 phi2_n2 phi1_n2 com_x cap_switch_block
x68 net1 sub GND vdd phi13 phi23 phi2_n3 phi1_n3 com_x cap_switch_block
x67 net1 sub GND vdd phi13 phi23 phi2_n3 phi1_n3 com_x cap_switch_block
x66 net1 sub GND vdd phi13 phi23 phi2_n3 phi1_n3 com_x cap_switch_block
x65 net1 sub GND vdd phi13 phi23 phi2_n3 phi1_n3 com_x cap_switch_block
x64 net1 sub GND vdd phi13 phi23 phi2_n3 phi1_n3 com_x cap_switch_block
x63 net1 sub GND vdd phi13 phi23 phi2_n3 phi1_n3 com_x cap_switch_block
x62 net1 sub GND vdd phi13 phi23 phi2_n3 phi1_n3 com_x cap_switch_block
x61 net1 sub GND vdd phi13 phi23 phi2_n3 phi1_n3 com_x cap_switch_block
x716 net1 sub GND vdd phi14 phi24 phi2_n4 phi1_n4 com_x cap_switch_block
x715 net1 sub GND vdd phi14 phi24 phi2_n4 phi1_n4 com_x cap_switch_block
x714 net1 sub GND vdd phi14 phi24 phi2_n4 phi1_n4 com_x cap_switch_block
x713 net1 sub GND vdd phi14 phi24 phi2_n4 phi1_n4 com_x cap_switch_block
x712 net1 sub GND vdd phi14 phi24 phi2_n4 phi1_n4 com_x cap_switch_block
x711 net1 sub GND vdd phi14 phi24 phi2_n4 phi1_n4 com_x cap_switch_block
x710 net1 sub GND vdd phi14 phi24 phi2_n4 phi1_n4 com_x cap_switch_block
x79 net1 sub GND vdd phi14 phi24 phi2_n4 phi1_n4 com_x cap_switch_block
x78 net1 sub GND vdd phi14 phi24 phi2_n4 phi1_n4 com_x cap_switch_block
x77 net1 sub GND vdd phi14 phi24 phi2_n4 phi1_n4 com_x cap_switch_block
x76 net1 sub GND vdd phi14 phi24 phi2_n4 phi1_n4 com_x cap_switch_block
x75 net1 sub GND vdd phi14 phi24 phi2_n4 phi1_n4 com_x cap_switch_block
x74 net1 sub GND vdd phi14 phi24 phi2_n4 phi1_n4 com_x cap_switch_block
x73 net1 sub GND vdd phi14 phi24 phi2_n4 phi1_n4 com_x cap_switch_block
x72 net1 sub GND vdd phi14 phi24 phi2_n4 phi1_n4 com_x cap_switch_block
x71 net1 sub GND vdd phi14 phi24 phi2_n4 phi1_n4 com_x cap_switch_block
x832 net1 sub GND vdd phi15 phi25 phi2_n5 phi1_n5 com_x cap_switch_block
x831 net1 sub GND vdd phi15 phi25 phi2_n5 phi1_n5 com_x cap_switch_block
x830 net1 sub GND vdd phi15 phi25 phi2_n5 phi1_n5 com_x cap_switch_block
x829 net1 sub GND vdd phi15 phi25 phi2_n5 phi1_n5 com_x cap_switch_block
x828 net1 sub GND vdd phi15 phi25 phi2_n5 phi1_n5 com_x cap_switch_block
x827 net1 sub GND vdd phi15 phi25 phi2_n5 phi1_n5 com_x cap_switch_block
x826 net1 sub GND vdd phi15 phi25 phi2_n5 phi1_n5 com_x cap_switch_block
x825 net1 sub GND vdd phi15 phi25 phi2_n5 phi1_n5 com_x cap_switch_block
x824 net1 sub GND vdd phi15 phi25 phi2_n5 phi1_n5 com_x cap_switch_block
x823 net1 sub GND vdd phi15 phi25 phi2_n5 phi1_n5 com_x cap_switch_block
x822 net1 sub GND vdd phi15 phi25 phi2_n5 phi1_n5 com_x cap_switch_block
x821 net1 sub GND vdd phi15 phi25 phi2_n5 phi1_n5 com_x cap_switch_block
x820 net1 sub GND vdd phi15 phi25 phi2_n5 phi1_n5 com_x cap_switch_block
x819 net1 sub GND vdd phi15 phi25 phi2_n5 phi1_n5 com_x cap_switch_block
x818 net1 sub GND vdd phi15 phi25 phi2_n5 phi1_n5 com_x cap_switch_block
x817 net1 sub GND vdd phi15 phi25 phi2_n5 phi1_n5 com_x cap_switch_block
x816 net1 sub GND vdd phi15 phi25 phi2_n5 phi1_n5 com_x cap_switch_block
x815 net1 sub GND vdd phi15 phi25 phi2_n5 phi1_n5 com_x cap_switch_block
x814 net1 sub GND vdd phi15 phi25 phi2_n5 phi1_n5 com_x cap_switch_block
x813 net1 sub GND vdd phi15 phi25 phi2_n5 phi1_n5 com_x cap_switch_block
x812 net1 sub GND vdd phi15 phi25 phi2_n5 phi1_n5 com_x cap_switch_block
x811 net1 sub GND vdd phi15 phi25 phi2_n5 phi1_n5 com_x cap_switch_block
x810 net1 sub GND vdd phi15 phi25 phi2_n5 phi1_n5 com_x cap_switch_block
x89 net1 sub GND vdd phi15 phi25 phi2_n5 phi1_n5 com_x cap_switch_block
x88 net1 sub GND vdd phi15 phi25 phi2_n5 phi1_n5 com_x cap_switch_block
x87 net1 sub GND vdd phi15 phi25 phi2_n5 phi1_n5 com_x cap_switch_block
x86 net1 sub GND vdd phi15 phi25 phi2_n5 phi1_n5 com_x cap_switch_block
x85 net1 sub GND vdd phi15 phi25 phi2_n5 phi1_n5 com_x cap_switch_block
x84 net1 sub GND vdd phi15 phi25 phi2_n5 phi1_n5 com_x cap_switch_block
x83 net1 sub GND vdd phi15 phi25 phi2_n5 phi1_n5 com_x cap_switch_block
x82 net1 sub GND vdd phi15 phi25 phi2_n5 phi1_n5 com_x cap_switch_block
x81 net1 sub GND vdd phi15 phi25 phi2_n5 phi1_n5 com_x cap_switch_block
x964 net1 sub GND vdd phi16 phi26 phi2_n6 phi1_n6 com_x cap_switch_block
x963 net1 sub GND vdd phi16 phi26 phi2_n6 phi1_n6 com_x cap_switch_block
x962 net1 sub GND vdd phi16 phi26 phi2_n6 phi1_n6 com_x cap_switch_block
x961 net1 sub GND vdd phi16 phi26 phi2_n6 phi1_n6 com_x cap_switch_block
x960 net1 sub GND vdd phi16 phi26 phi2_n6 phi1_n6 com_x cap_switch_block
x959 net1 sub GND vdd phi16 phi26 phi2_n6 phi1_n6 com_x cap_switch_block
x958 net1 sub GND vdd phi16 phi26 phi2_n6 phi1_n6 com_x cap_switch_block
x957 net1 sub GND vdd phi16 phi26 phi2_n6 phi1_n6 com_x cap_switch_block
x956 net1 sub GND vdd phi16 phi26 phi2_n6 phi1_n6 com_x cap_switch_block
x955 net1 sub GND vdd phi16 phi26 phi2_n6 phi1_n6 com_x cap_switch_block
x954 net1 sub GND vdd phi16 phi26 phi2_n6 phi1_n6 com_x cap_switch_block
x953 net1 sub GND vdd phi16 phi26 phi2_n6 phi1_n6 com_x cap_switch_block
x952 net1 sub GND vdd phi16 phi26 phi2_n6 phi1_n6 com_x cap_switch_block
x951 net1 sub GND vdd phi16 phi26 phi2_n6 phi1_n6 com_x cap_switch_block
x950 net1 sub GND vdd phi16 phi26 phi2_n6 phi1_n6 com_x cap_switch_block
x949 net1 sub GND vdd phi16 phi26 phi2_n6 phi1_n6 com_x cap_switch_block
x948 net1 sub GND vdd phi16 phi26 phi2_n6 phi1_n6 com_x cap_switch_block
x947 net1 sub GND vdd phi16 phi26 phi2_n6 phi1_n6 com_x cap_switch_block
x946 net1 sub GND vdd phi16 phi26 phi2_n6 phi1_n6 com_x cap_switch_block
x945 net1 sub GND vdd phi16 phi26 phi2_n6 phi1_n6 com_x cap_switch_block
x944 net1 sub GND vdd phi16 phi26 phi2_n6 phi1_n6 com_x cap_switch_block
x943 net1 sub GND vdd phi16 phi26 phi2_n6 phi1_n6 com_x cap_switch_block
x942 net1 sub GND vdd phi16 phi26 phi2_n6 phi1_n6 com_x cap_switch_block
x941 net1 sub GND vdd phi16 phi26 phi2_n6 phi1_n6 com_x cap_switch_block
x940 net1 sub GND vdd phi16 phi26 phi2_n6 phi1_n6 com_x cap_switch_block
x939 net1 sub GND vdd phi16 phi26 phi2_n6 phi1_n6 com_x cap_switch_block
x938 net1 sub GND vdd phi16 phi26 phi2_n6 phi1_n6 com_x cap_switch_block
x937 net1 sub GND vdd phi16 phi26 phi2_n6 phi1_n6 com_x cap_switch_block
x936 net1 sub GND vdd phi16 phi26 phi2_n6 phi1_n6 com_x cap_switch_block
x935 net1 sub GND vdd phi16 phi26 phi2_n6 phi1_n6 com_x cap_switch_block
x934 net1 sub GND vdd phi16 phi26 phi2_n6 phi1_n6 com_x cap_switch_block
x933 net1 sub GND vdd phi16 phi26 phi2_n6 phi1_n6 com_x cap_switch_block
x932 net1 sub GND vdd phi16 phi26 phi2_n6 phi1_n6 com_x cap_switch_block
x931 net1 sub GND vdd phi16 phi26 phi2_n6 phi1_n6 com_x cap_switch_block
x930 net1 sub GND vdd phi16 phi26 phi2_n6 phi1_n6 com_x cap_switch_block
x929 net1 sub GND vdd phi16 phi26 phi2_n6 phi1_n6 com_x cap_switch_block
x928 net1 sub GND vdd phi16 phi26 phi2_n6 phi1_n6 com_x cap_switch_block
x927 net1 sub GND vdd phi16 phi26 phi2_n6 phi1_n6 com_x cap_switch_block
x926 net1 sub GND vdd phi16 phi26 phi2_n6 phi1_n6 com_x cap_switch_block
x925 net1 sub GND vdd phi16 phi26 phi2_n6 phi1_n6 com_x cap_switch_block
x924 net1 sub GND vdd phi16 phi26 phi2_n6 phi1_n6 com_x cap_switch_block
x923 net1 sub GND vdd phi16 phi26 phi2_n6 phi1_n6 com_x cap_switch_block
x922 net1 sub GND vdd phi16 phi26 phi2_n6 phi1_n6 com_x cap_switch_block
x921 net1 sub GND vdd phi16 phi26 phi2_n6 phi1_n6 com_x cap_switch_block
x920 net1 sub GND vdd phi16 phi26 phi2_n6 phi1_n6 com_x cap_switch_block
x919 net1 sub GND vdd phi16 phi26 phi2_n6 phi1_n6 com_x cap_switch_block
x918 net1 sub GND vdd phi16 phi26 phi2_n6 phi1_n6 com_x cap_switch_block
x917 net1 sub GND vdd phi16 phi26 phi2_n6 phi1_n6 com_x cap_switch_block
x916 net1 sub GND vdd phi16 phi26 phi2_n6 phi1_n6 com_x cap_switch_block
x915 net1 sub GND vdd phi16 phi26 phi2_n6 phi1_n6 com_x cap_switch_block
x914 net1 sub GND vdd phi16 phi26 phi2_n6 phi1_n6 com_x cap_switch_block
x913 net1 sub GND vdd phi16 phi26 phi2_n6 phi1_n6 com_x cap_switch_block
x912 net1 sub GND vdd phi16 phi26 phi2_n6 phi1_n6 com_x cap_switch_block
x911 net1 sub GND vdd phi16 phi26 phi2_n6 phi1_n6 com_x cap_switch_block
x910 net1 sub GND vdd phi16 phi26 phi2_n6 phi1_n6 com_x cap_switch_block
x99 net1 sub GND vdd phi16 phi26 phi2_n6 phi1_n6 com_x cap_switch_block
x98 net1 sub GND vdd phi16 phi26 phi2_n6 phi1_n6 com_x cap_switch_block
x97 net1 sub GND vdd phi16 phi26 phi2_n6 phi1_n6 com_x cap_switch_block
x96 net1 sub GND vdd phi16 phi26 phi2_n6 phi1_n6 com_x cap_switch_block
x95 net1 sub GND vdd phi16 phi26 phi2_n6 phi1_n6 com_x cap_switch_block
x94 net1 sub GND vdd phi16 phi26 phi2_n6 phi1_n6 com_x cap_switch_block
x93 net1 sub GND vdd phi16 phi26 phi2_n6 phi1_n6 com_x cap_switch_block
x92 net1 sub GND vdd phi16 phi26 phi2_n6 phi1_n6 com_x cap_switch_block
x91 net1 sub GND vdd phi16 phi26 phi2_n6 phi1_n6 com_x cap_switch_block
x10128 net1 sub GND vdd phi17 phi27 phi2_n7 phi1_n7 com_x cap_switch_block
x10127 net1 sub GND vdd phi17 phi27 phi2_n7 phi1_n7 com_x cap_switch_block
x10126 net1 sub GND vdd phi17 phi27 phi2_n7 phi1_n7 com_x cap_switch_block
x10125 net1 sub GND vdd phi17 phi27 phi2_n7 phi1_n7 com_x cap_switch_block
x10124 net1 sub GND vdd phi17 phi27 phi2_n7 phi1_n7 com_x cap_switch_block
x10123 net1 sub GND vdd phi17 phi27 phi2_n7 phi1_n7 com_x cap_switch_block
x10122 net1 sub GND vdd phi17 phi27 phi2_n7 phi1_n7 com_x cap_switch_block
x10121 net1 sub GND vdd phi17 phi27 phi2_n7 phi1_n7 com_x cap_switch_block
x10120 net1 sub GND vdd phi17 phi27 phi2_n7 phi1_n7 com_x cap_switch_block
x10119 net1 sub GND vdd phi17 phi27 phi2_n7 phi1_n7 com_x cap_switch_block
x10118 net1 sub GND vdd phi17 phi27 phi2_n7 phi1_n7 com_x cap_switch_block
x10117 net1 sub GND vdd phi17 phi27 phi2_n7 phi1_n7 com_x cap_switch_block
x10116 net1 sub GND vdd phi17 phi27 phi2_n7 phi1_n7 com_x cap_switch_block
x10115 net1 sub GND vdd phi17 phi27 phi2_n7 phi1_n7 com_x cap_switch_block
x10114 net1 sub GND vdd phi17 phi27 phi2_n7 phi1_n7 com_x cap_switch_block
x10113 net1 sub GND vdd phi17 phi27 phi2_n7 phi1_n7 com_x cap_switch_block
x10112 net1 sub GND vdd phi17 phi27 phi2_n7 phi1_n7 com_x cap_switch_block
x10111 net1 sub GND vdd phi17 phi27 phi2_n7 phi1_n7 com_x cap_switch_block
x10110 net1 sub GND vdd phi17 phi27 phi2_n7 phi1_n7 com_x cap_switch_block
x10109 net1 sub GND vdd phi17 phi27 phi2_n7 phi1_n7 com_x cap_switch_block
x10108 net1 sub GND vdd phi17 phi27 phi2_n7 phi1_n7 com_x cap_switch_block
x10107 net1 sub GND vdd phi17 phi27 phi2_n7 phi1_n7 com_x cap_switch_block
x10106 net1 sub GND vdd phi17 phi27 phi2_n7 phi1_n7 com_x cap_switch_block
x10105 net1 sub GND vdd phi17 phi27 phi2_n7 phi1_n7 com_x cap_switch_block
x10104 net1 sub GND vdd phi17 phi27 phi2_n7 phi1_n7 com_x cap_switch_block
x10103 net1 sub GND vdd phi17 phi27 phi2_n7 phi1_n7 com_x cap_switch_block
x10102 net1 sub GND vdd phi17 phi27 phi2_n7 phi1_n7 com_x cap_switch_block
x10101 net1 sub GND vdd phi17 phi27 phi2_n7 phi1_n7 com_x cap_switch_block
x10100 net1 sub GND vdd phi17 phi27 phi2_n7 phi1_n7 com_x cap_switch_block
x1099 net1 sub GND vdd phi17 phi27 phi2_n7 phi1_n7 com_x cap_switch_block
x1098 net1 sub GND vdd phi17 phi27 phi2_n7 phi1_n7 com_x cap_switch_block
x1097 net1 sub GND vdd phi17 phi27 phi2_n7 phi1_n7 com_x cap_switch_block
x1096 net1 sub GND vdd phi17 phi27 phi2_n7 phi1_n7 com_x cap_switch_block
x1095 net1 sub GND vdd phi17 phi27 phi2_n7 phi1_n7 com_x cap_switch_block
x1094 net1 sub GND vdd phi17 phi27 phi2_n7 phi1_n7 com_x cap_switch_block
x1093 net1 sub GND vdd phi17 phi27 phi2_n7 phi1_n7 com_x cap_switch_block
x1092 net1 sub GND vdd phi17 phi27 phi2_n7 phi1_n7 com_x cap_switch_block
x1091 net1 sub GND vdd phi17 phi27 phi2_n7 phi1_n7 com_x cap_switch_block
x1090 net1 sub GND vdd phi17 phi27 phi2_n7 phi1_n7 com_x cap_switch_block
x1089 net1 sub GND vdd phi17 phi27 phi2_n7 phi1_n7 com_x cap_switch_block
x1088 net1 sub GND vdd phi17 phi27 phi2_n7 phi1_n7 com_x cap_switch_block
x1087 net1 sub GND vdd phi17 phi27 phi2_n7 phi1_n7 com_x cap_switch_block
x1086 net1 sub GND vdd phi17 phi27 phi2_n7 phi1_n7 com_x cap_switch_block
x1085 net1 sub GND vdd phi17 phi27 phi2_n7 phi1_n7 com_x cap_switch_block
x1084 net1 sub GND vdd phi17 phi27 phi2_n7 phi1_n7 com_x cap_switch_block
x1083 net1 sub GND vdd phi17 phi27 phi2_n7 phi1_n7 com_x cap_switch_block
x1082 net1 sub GND vdd phi17 phi27 phi2_n7 phi1_n7 com_x cap_switch_block
x1081 net1 sub GND vdd phi17 phi27 phi2_n7 phi1_n7 com_x cap_switch_block
x1080 net1 sub GND vdd phi17 phi27 phi2_n7 phi1_n7 com_x cap_switch_block
x1079 net1 sub GND vdd phi17 phi27 phi2_n7 phi1_n7 com_x cap_switch_block
x1078 net1 sub GND vdd phi17 phi27 phi2_n7 phi1_n7 com_x cap_switch_block
x1077 net1 sub GND vdd phi17 phi27 phi2_n7 phi1_n7 com_x cap_switch_block
x1076 net1 sub GND vdd phi17 phi27 phi2_n7 phi1_n7 com_x cap_switch_block
x1075 net1 sub GND vdd phi17 phi27 phi2_n7 phi1_n7 com_x cap_switch_block
x1074 net1 sub GND vdd phi17 phi27 phi2_n7 phi1_n7 com_x cap_switch_block
x1073 net1 sub GND vdd phi17 phi27 phi2_n7 phi1_n7 com_x cap_switch_block
x1072 net1 sub GND vdd phi17 phi27 phi2_n7 phi1_n7 com_x cap_switch_block
x1071 net1 sub GND vdd phi17 phi27 phi2_n7 phi1_n7 com_x cap_switch_block
x1070 net1 sub GND vdd phi17 phi27 phi2_n7 phi1_n7 com_x cap_switch_block
x1069 net1 sub GND vdd phi17 phi27 phi2_n7 phi1_n7 com_x cap_switch_block
x1068 net1 sub GND vdd phi17 phi27 phi2_n7 phi1_n7 com_x cap_switch_block
x1067 net1 sub GND vdd phi17 phi27 phi2_n7 phi1_n7 com_x cap_switch_block
x1066 net1 sub GND vdd phi17 phi27 phi2_n7 phi1_n7 com_x cap_switch_block
x1065 net1 sub GND vdd phi17 phi27 phi2_n7 phi1_n7 com_x cap_switch_block
x1064 net1 sub GND vdd phi17 phi27 phi2_n7 phi1_n7 com_x cap_switch_block
x1063 net1 sub GND vdd phi17 phi27 phi2_n7 phi1_n7 com_x cap_switch_block
x1062 net1 sub GND vdd phi17 phi27 phi2_n7 phi1_n7 com_x cap_switch_block
x1061 net1 sub GND vdd phi17 phi27 phi2_n7 phi1_n7 com_x cap_switch_block
x1060 net1 sub GND vdd phi17 phi27 phi2_n7 phi1_n7 com_x cap_switch_block
x1059 net1 sub GND vdd phi17 phi27 phi2_n7 phi1_n7 com_x cap_switch_block
x1058 net1 sub GND vdd phi17 phi27 phi2_n7 phi1_n7 com_x cap_switch_block
x1057 net1 sub GND vdd phi17 phi27 phi2_n7 phi1_n7 com_x cap_switch_block
x1056 net1 sub GND vdd phi17 phi27 phi2_n7 phi1_n7 com_x cap_switch_block
x1055 net1 sub GND vdd phi17 phi27 phi2_n7 phi1_n7 com_x cap_switch_block
x1054 net1 sub GND vdd phi17 phi27 phi2_n7 phi1_n7 com_x cap_switch_block
x1053 net1 sub GND vdd phi17 phi27 phi2_n7 phi1_n7 com_x cap_switch_block
x1052 net1 sub GND vdd phi17 phi27 phi2_n7 phi1_n7 com_x cap_switch_block
x1051 net1 sub GND vdd phi17 phi27 phi2_n7 phi1_n7 com_x cap_switch_block
x1050 net1 sub GND vdd phi17 phi27 phi2_n7 phi1_n7 com_x cap_switch_block
x1049 net1 sub GND vdd phi17 phi27 phi2_n7 phi1_n7 com_x cap_switch_block
x1048 net1 sub GND vdd phi17 phi27 phi2_n7 phi1_n7 com_x cap_switch_block
x1047 net1 sub GND vdd phi17 phi27 phi2_n7 phi1_n7 com_x cap_switch_block
x1046 net1 sub GND vdd phi17 phi27 phi2_n7 phi1_n7 com_x cap_switch_block
x1045 net1 sub GND vdd phi17 phi27 phi2_n7 phi1_n7 com_x cap_switch_block
x1044 net1 sub GND vdd phi17 phi27 phi2_n7 phi1_n7 com_x cap_switch_block
x1043 net1 sub GND vdd phi17 phi27 phi2_n7 phi1_n7 com_x cap_switch_block
x1042 net1 sub GND vdd phi17 phi27 phi2_n7 phi1_n7 com_x cap_switch_block
x1041 net1 sub GND vdd phi17 phi27 phi2_n7 phi1_n7 com_x cap_switch_block
x1040 net1 sub GND vdd phi17 phi27 phi2_n7 phi1_n7 com_x cap_switch_block
x1039 net1 sub GND vdd phi17 phi27 phi2_n7 phi1_n7 com_x cap_switch_block
x1038 net1 sub GND vdd phi17 phi27 phi2_n7 phi1_n7 com_x cap_switch_block
x1037 net1 sub GND vdd phi17 phi27 phi2_n7 phi1_n7 com_x cap_switch_block
x1036 net1 sub GND vdd phi17 phi27 phi2_n7 phi1_n7 com_x cap_switch_block
x1035 net1 sub GND vdd phi17 phi27 phi2_n7 phi1_n7 com_x cap_switch_block
x1034 net1 sub GND vdd phi17 phi27 phi2_n7 phi1_n7 com_x cap_switch_block
x1033 net1 sub GND vdd phi17 phi27 phi2_n7 phi1_n7 com_x cap_switch_block
x1032 net1 sub GND vdd phi17 phi27 phi2_n7 phi1_n7 com_x cap_switch_block
x1031 net1 sub GND vdd phi17 phi27 phi2_n7 phi1_n7 com_x cap_switch_block
x1030 net1 sub GND vdd phi17 phi27 phi2_n7 phi1_n7 com_x cap_switch_block
x1029 net1 sub GND vdd phi17 phi27 phi2_n7 phi1_n7 com_x cap_switch_block
x1028 net1 sub GND vdd phi17 phi27 phi2_n7 phi1_n7 com_x cap_switch_block
x1027 net1 sub GND vdd phi17 phi27 phi2_n7 phi1_n7 com_x cap_switch_block
x1026 net1 sub GND vdd phi17 phi27 phi2_n7 phi1_n7 com_x cap_switch_block
x1025 net1 sub GND vdd phi17 phi27 phi2_n7 phi1_n7 com_x cap_switch_block
x1024 net1 sub GND vdd phi17 phi27 phi2_n7 phi1_n7 com_x cap_switch_block
x1023 net1 sub GND vdd phi17 phi27 phi2_n7 phi1_n7 com_x cap_switch_block
x1022 net1 sub GND vdd phi17 phi27 phi2_n7 phi1_n7 com_x cap_switch_block
x1021 net1 sub GND vdd phi17 phi27 phi2_n7 phi1_n7 com_x cap_switch_block
x1020 net1 sub GND vdd phi17 phi27 phi2_n7 phi1_n7 com_x cap_switch_block
x1019 net1 sub GND vdd phi17 phi27 phi2_n7 phi1_n7 com_x cap_switch_block
x1018 net1 sub GND vdd phi17 phi27 phi2_n7 phi1_n7 com_x cap_switch_block
x1017 net1 sub GND vdd phi17 phi27 phi2_n7 phi1_n7 com_x cap_switch_block
x1016 net1 sub GND vdd phi17 phi27 phi2_n7 phi1_n7 com_x cap_switch_block
x1015 net1 sub GND vdd phi17 phi27 phi2_n7 phi1_n7 com_x cap_switch_block
x1014 net1 sub GND vdd phi17 phi27 phi2_n7 phi1_n7 com_x cap_switch_block
x1013 net1 sub GND vdd phi17 phi27 phi2_n7 phi1_n7 com_x cap_switch_block
x1012 net1 sub GND vdd phi17 phi27 phi2_n7 phi1_n7 com_x cap_switch_block
x1011 net1 sub GND vdd phi17 phi27 phi2_n7 phi1_n7 com_x cap_switch_block
x1010 net1 sub GND vdd phi17 phi27 phi2_n7 phi1_n7 com_x cap_switch_block
x109 net1 sub GND vdd phi17 phi27 phi2_n7 phi1_n7 com_x cap_switch_block
x108 net1 sub GND vdd phi17 phi27 phi2_n7 phi1_n7 com_x cap_switch_block